Version 4
SHEET 1 1032 680
WIRE 128 48 -64 48
WIRE 192 48 128 48
WIRE 304 48 192 48
WIRE 544 48 304 48
WIRE 544 64 544 48
WIRE -64 80 -64 48
WIRE 192 96 192 48
WIRE 688 112 608 112
WIRE 304 128 304 48
WIRE 608 144 608 112
WIRE 608 144 592 144
WIRE 544 176 544 160
WIRE 688 176 688 112
WIRE -64 192 -64 160
WIRE 192 192 192 176
WIRE 608 192 608 144
WIRE 608 192 592 192
WIRE 688 272 688 256
WIRE 128 304 32 304
WIRE 208 304 128 304
WIRE 304 320 304 208
WIRE 352 320 304 320
WIRE 32 336 32 304
WIRE 208 368 208 304
WIRE 224 368 208 368
WIRE 336 368 320 368
WIRE 464 368 432 368
WIRE 544 368 544 272
WIRE 544 368 464 368
WIRE 464 432 464 368
WIRE 560 432 464 432
WIRE 640 432 560 432
WIRE 784 432 720 432
WIRE 32 448 32 416
WIRE 784 448 784 432
FLAG -64 192 0
FLAG 32 448 0
FLAG 192 192 0
FLAG 688 272 0
FLAG 560 432 Vo
FLAG 784 448 0
FLAG 128 48 V1
FLAG 128 304 V2
SYMBOL voltage -64 64 R0
WINDOW 3 -377 100 Left 2
WINDOW 123 0 0 Left 0
WINDOW 39 0 0 Left 0
SYMATTR Value PULSE(0 3.3 0 0.001 0.001 0.5 1)
SYMATTR InstName V1
SYMBOL voltage 32 320 R0
WINDOW 123 0 0 Left 0
WINDOW 39 0 0 Left 0
SYMATTR InstName V2
SYMATTR Value 3.3
SYMBOL res 176 80 R0
SYMATTR InstName R1
SYMATTR Value 100k
SYMBOL pmos 224 320 M90
SYMATTR InstName M1
SYMATTR Value AO6407
SYMBOL pmos 592 64 M0
SYMATTR InstName M2
SYMATTR Value AO6407
SYMBOL res 672 160 R0
SYMATTR InstName R2
SYMATTR Value 10k
SYMBOL res 736 416 R90
WINDOW 0 0 56 VBottom 2
WINDOW 3 32 56 VTop 2
SYMATTR InstName R3
SYMATTR Value 5k
SYMBOL res 288 112 R0
SYMATTR InstName R4
SYMATTR Value 10k
SYMBOL pmos 432 320 R90
SYMATTR InstName M3
SYMATTR Value AO6407
SYMBOL pmos 592 272 R180
SYMATTR InstName M4
SYMATTR Value AO6407
TEXT 0 496 Left 2 !.tran 1
